/*---------------------------------------------------------------------------*\
| =========                 |                                                 |
| \\      /  F ield         | OpenFOAM: The Open Source CFD Toolbox           |
|  \\    /   O peration     | Version:  2.2.x                                 |
|   \\  /    A nd           | Web:      www.OpenFOAM.org                      |
|    \\/     M anipulation  |                                                 |
\*---------------------------------------------------------------------------*/
Build  : 2.2.x-1f35a0ff2a58
Exec   : lighthillCostFunction
Date   : May 24 2017
Time   : 00:59:14
Host   : "ubuntu"
PID    : 23579
Case   : /home/wang/OpenFOAM/wang-2.2.x/applications/solvers/incompressible/lighthillCostFunction
nProcs : 1
sigFpe : Enabling floating point exception trapping (FOAM_SIGFPE).
fileModificationChecking : Monitoring run-time modified files using timeStampMaster
allowSystemOperations : Disallowing user-supplied system call operations

// * * * * * * * * * * * * * * * * * * * * * * * * * * * * * * * * * * * * * //
Create time



--> FOAM FATAL IO ERROR: 
cannot find file

file: /home/wang/OpenFOAM/wang-2.2.x/applications/solvers/incompressible/lighthillCostFunction/system/controlDict at line 0.

    From function regIOobject::readStream()
    in file db/regIOobject/regIOobjectRead.C at line 73.

FOAM exiting

